Version 4
SHEET 1 2072 2196
WIRE 320 -528 272 -528
WIRE 432 -528 384 -528
WIRE 96 -416 0 -416
WIRE 144 -416 96 -416
WIRE 272 -416 272 -528
WIRE 272 -416 224 -416
WIRE 320 -416 272 -416
WIRE 432 -416 432 -528
WIRE 432 -416 400 -416
WIRE 496 -416 432 -416
WIRE -512 -400 -704 -400
WIRE -256 -400 -320 -400
WIRE 0 -384 0 -416
WIRE -512 -368 -592 -368
WIRE -144 -368 -144 -416
WIRE -144 -368 -320 -368
WIRE 976 -368 848 -368
WIRE -512 -336 -656 -336
WIRE 720 -336 352 -336
WIRE 848 -336 848 -368
WIRE 848 -336 720 -336
WIRE 976 -336 976 -368
WIRE 976 -336 960 -336
WIRE 224 -320 224 -416
WIRE 224 -320 128 -320
WIRE -656 -288 -656 -336
WIRE 352 -272 352 -336
WIRE 352 -272 304 -272
WIRE 496 -272 496 -416
WIRE 176 -256 80 -256
WIRE 496 -256 496 -272
WIRE 496 -256 400 -256
WIRE 352 -240 304 -240
WIRE -256 -224 -256 -400
WIRE 128 -224 128 -320
WIRE 176 -224 128 -224
WIRE 960 -224 960 -256
WIRE 1072 -224 960 -224
WIRE 400 -208 400 -256
WIRE 400 -208 304 -208
WIRE 720 -208 720 -336
WIRE 960 -208 960 -224
WIRE -592 -192 -592 -368
WIRE -528 -192 -592 -192
WIRE 352 -176 352 -240
WIRE 496 -176 352 -176
WIRE 80 -144 80 -256
WIRE 256 -144 80 -144
WIRE -704 -96 -704 -400
WIRE 80 -96 -32 -96
WIRE 144 -96 80 -96
WIRE 256 -96 256 -144
WIRE 256 -96 224 -96
WIRE 320 -96 256 -96
WIRE 1072 -96 1072 -224
WIRE 1072 -96 400 -96
WIRE -32 -80 -32 -96
WIRE 80 -48 80 -96
WIRE 256 -48 256 -96
WIRE 256 32 256 16
FLAG -32 80 0
FLAG 0 -304 0
FLAG 720 -128 0
FLAG 576 -176 0
FLAG 960 -128 0
FLAG -32 -96 Isignal
FLAG 496 -416 Out
FLAG 80 32 0
FLAG 96 -336 0
FLAG 576 -272 0
FLAG 256 32 0
FLAG -320 -336 0
FLAG -448 -192 0
FLAG -656 -208 0
FLAG 0 -416 ZCR
SYMBOL res 416 -432 R90
WINDOW 0 0 56 VBottom 2
WINDOW 3 32 56 VTop 2
SYMATTR InstName R1
SYMATTR Value 30k
SYMATTR SpiceLine tol=0.1
SYMBOL res 416 -112 R90
WINDOW 0 0 56 VBottom 2
WINDOW 3 32 56 VTop 2
SYMATTR InstName R2
SYMATTR Value 24.9k
SYMATTR SpiceLine tol=0.1
SYMBOL res 240 -112 R90
WINDOW 0 0 56 VBottom 2
WINDOW 3 32 56 VTop 2
SYMATTR InstName R3
SYMATTR Value 30k
SYMATTR SpiceLine tol=0.1
SYMBOL res 240 -432 R90
WINDOW 0 0 56 VBottom 2
WINDOW 3 32 56 VTop 2
SYMATTR InstName R4
SYMATTR Value 30k
SYMATTR SpiceLine tol=0.1
SYMBOL voltage 0 -400 R0
WINDOW 3 24 96 Invisible 2
WINDOW 123 0 0 Left 0
WINDOW 39 0 0 Left 0
SYMATTR Value SINE(2.55 {NoiseAmp} {NoiseFreq})
SYMATTR InstName V1
SYMBOL voltage -32 -16 R0
WINDOW 3 24 96 Invisible 2
WINDOW 123 0 0 Left 0
WINDOW 39 0 0 Left 0
SYMATTR Value SINE(0 {NoiseAmp} {NoiseFreq})
SYMATTR InstName V2
SYMBOL voltage -32 -96 R0
WINDOW 3 -215 51 Invisible 2
WINDOW 123 0 0 Left 0
WINDOW 39 0 0 Left 0
SYMATTR Value SINE(2.5 {SignalAmp} {SignalFreq} 0 0 0 0)
SYMATTR InstName V3
SYMBOL voltage 720 -224 R0
WINDOW 123 0 0 Left 0
WINDOW 39 0 0 Left 0
SYMATTR InstName V5
SYMATTR Value 3.3
SYMBOL voltage 592 -176 R90
WINDOW 0 -32 56 VBottom 2
WINDOW 3 32 56 VTop 2
WINDOW 123 0 0 Left 0
WINDOW 39 0 0 Left 0
SYMATTR InstName V6
SYMATTR Value 0
SYMBOL res 944 -352 R0
SYMATTR InstName R5
SYMATTR Value 10.2k
SYMBOL res 944 -224 R0
SYMATTR InstName R6
SYMATTR Value 10.2k
SYMBOL res 64 -64 R0
SYMATTR InstName R7
SYMATTR Value 10k
SYMBOL res 80 -432 R0
SYMATTR InstName R8
SYMATTR Value 10k
SYMBOL cap 384 -544 R90
WINDOW 0 0 32 VBottom 2
WINDOW 3 32 32 VTop 2
SYMATTR InstName C1
SYMATTR Value 0
SYMBOL res 592 -288 R90
WINDOW 0 0 56 VBottom 2
WINDOW 3 32 56 VTop 2
SYMATTR InstName R28
SYMATTR Value 10k
SYMBOL cap 240 -48 R0
SYMATTR InstName C2
SYMATTR Value 0
SYMBOL AutoGenerated\\TLV9052 240 -240 R0
SYMATTR InstName U1
SYMBOL AutoGenerated\\ACS730 -416 -368 R0
SYMATTR InstName U2
SYMBOL res -432 -208 R90
WINDOW 0 0 56 VBottom 2
WINDOW 3 32 56 VTop 2
SYMATTR InstName R9
SYMATTR Value 1
SYMBOL voltage -656 -304 R0
WINDOW 123 0 0 Left 0
WINDOW 39 0 0 Left 0
SYMATTR InstName V4
SYMATTR Value 5
TEXT -1064 88 Left 2 !.tran {1/{SignalFreq}*100}
TEXT -1064 40 Left 2 !.param NoiseAmp=0 NoiseFreq=100k SignalAmp=1 SignalFreq=250k polarity=2 sensitivity=1
