Version 4
SHEET 1 2644 1540
WIRE -2368 624 -2400 624
WIRE -2400 656 -2400 624
WIRE -2368 768 -2400 768
WIRE -2400 800 -2400 768
WIRE -112 912 -128 912
WIRE -2368 944 -2400 944
WIRE -112 944 -112 912
WIRE -112 944 -544 944
WIRE 320 944 -112 944
WIRE -2400 976 -2400 944
WIRE -544 1024 -544 944
WIRE -544 1024 -560 1024
WIRE -112 1024 -112 944
WIRE -112 1024 -128 1024
WIRE 320 1024 320 944
WIRE 320 1024 304 1024
WIRE -816 1040 -864 1040
WIRE -384 1040 -432 1040
WIRE 48 1040 0 1040
WIRE -1408 1056 -1456 1056
WIRE -1264 1056 -1328 1056
WIRE -1216 1056 -1264 1056
WIRE -1088 1056 -1136 1056
WIRE -544 1056 -560 1056
WIRE -112 1056 -128 1056
WIRE 320 1056 304 1056
WIRE -2368 1088 -2400 1088
WIRE -2400 1120 -2400 1088
WIRE -1456 1120 -1456 1056
WIRE -1264 1120 -1264 1056
WIRE 448 1120 448 1088
WIRE 592 1120 592 1088
WIRE 720 1120 720 1088
WIRE -544 1152 -544 1056
WIRE -528 1152 -544 1152
WIRE -112 1152 -112 1056
WIRE -96 1152 -112 1152
WIRE 320 1152 320 1056
WIRE 336 1152 320 1152
WIRE -1456 1232 -1456 1200
WIRE -1264 1232 -1264 1184
WIRE -544 1232 -544 1152
WIRE -544 1232 -560 1232
WIRE -112 1232 -112 1152
WIRE -112 1232 -128 1232
WIRE 320 1232 320 1152
WIRE 320 1232 304 1232
WIRE -816 1248 -864 1248
WIRE -384 1248 -432 1248
WIRE 48 1248 0 1248
WIRE 448 1248 448 1200
WIRE 592 1248 592 1200
WIRE 592 1248 448 1248
WIRE 720 1248 720 1200
WIRE 720 1248 592 1248
WIRE -2368 1264 -2400 1264
WIRE -544 1264 -560 1264
WIRE -112 1264 -128 1264
WIRE 320 1264 304 1264
WIRE -2400 1296 -2400 1264
WIRE -544 1344 -544 1264
WIRE -112 1344 -112 1264
WIRE -112 1344 -544 1344
WIRE 320 1344 320 1264
WIRE 320 1344 -112 1344
WIRE -112 1376 -112 1344
WIRE -112 1376 -128 1376
WIRE -2368 1408 -2400 1408
WIRE -2400 1440 -2400 1408
FLAG -528 1152 A
FLAG -128 912 DC+
FLAG -864 1040 Sahddt
FLAG -864 1248 Salddt
FLAG 448 1088 A
FLAG 592 1088 B
FLAG 720 1088 C
FLAG -3248 1120 0
FLAG -3056 800 0
FLAG -3056 1120 0
FLAG -3056 1440 0
FLAG -3248 1040 Vtri
FLAG -3056 720 Vam
FLAG -2896 880 0
FLAG -2896 800 Sal
FLAG -112 1376 0
FLAG -3056 1040 Vbm
FLAG -3056 1360 Vcm
FLAG -2896 976 Sbh
FLAG -2896 1200 0
FLAG -2896 1120 Sbl
FLAG -2896 1296 Sch
FLAG -2896 1520 0
FLAG -2896 1440 Scl
FLAG -2896 656 Sah
FLAG -2400 736 A
FLAG -2400 880 0
FLAG -2368 624 Sahddt
FLAG -2368 768 Salddt
FLAG -2400 1056 B
FLAG -2400 1200 0
FLAG -2368 944 Sbhddt
FLAG -2368 1088 Sblddt
FLAG -2400 1376 C
FLAG -2400 1520 0
FLAG -2368 1264 Schddt
FLAG -2368 1408 Sclddt
FLAG -2896 736 0
FLAG -2896 1056 0
FLAG -2896 1376 0
FLAG -1456 1232 0
FLAG -1264 1232 0
FLAG -1088 1056 DC+
FLAG -1264 1056 DCcap
FLAG -96 1152 B
FLAG -432 1040 Sbhddt
FLAG -432 1248 Sblddt
FLAG 0 1040 Schddt
FLAG 0 1248 Sclddt
FLAG 336 1152 C
SYMBOL ind 432 1104 R0
SYMATTR InstName L1
SYMATTR Value 50µH
SYMBOL ind 576 1104 R0
SYMATTR InstName L2
SYMATTR Value 50µH
SYMBOL ind 704 1104 R0
SYMATTR InstName L3
SYMATTR Value 50µH
SYMBOL voltage -3248 1024 R0
WINDOW 3 24 96 Invisible 2
WINDOW 123 0 0 Left 0
WINDOW 39 0 0 Left 0
SYMATTR Value PULSE(-1 1 0 {Ttririse} {Ttririse} 0 {Ttriperiod})
SYMATTR InstName Vtri
SYMBOL voltage -3056 704 R0
WINDOW 3 24 96 Invisible 2
WINDOW 123 0 0 Left 0
WINDOW 39 0 0 Left 0
SYMATTR Value SINE(0 {m} {f})
SYMATTR InstName Vam
SYMBOL voltage -3056 1024 R0
WINDOW 3 24 96 Invisible 2
WINDOW 123 0 0 Left 0
WINDOW 39 0 0 Left 0
SYMATTR Value SINE(0 {m} {f} 0 0 -120)
SYMATTR InstName Vbm
SYMBOL voltage -3056 1344 R0
WINDOW 3 24 96 Invisible 2
WINDOW 123 0 0 Left 0
WINDOW 39 0 0 Left 0
SYMATTR Value SINE(0 {m} {f} 0 0 120)
SYMATTR InstName Vcm
SYMBOL bv -2896 640 R0
SYMATTR InstName B1
SYMATTR Value V={if(V(Vam)>V(Vtri),{Von},{Voff})}
SYMBOL bv -2896 784 R0
SYMATTR InstName B2
SYMATTR Value V={if(V(Vam)>V(Vtri),{Voff},{Von})}
SYMBOL voltage -1456 1104 R0
WINDOW 123 0 0 Left 0
WINDOW 39 0 0 Left 0
SYMATTR InstName V1
SYMATTR Value {Vdc}
SYMBOL bv -2896 960 R0
SYMATTR InstName B3
SYMATTR Value V={if(V(Vbm)>V(Vtri),{Von},{Voff})}
SYMBOL bv -2896 1104 R0
SYMATTR InstName B4
SYMATTR Value V={if(V(Vbm)>V(Vtri),{Voff},{Von})}
SYMBOL bv -2896 1280 R0
SYMATTR InstName B5
SYMATTR Value V={if(V(Vcm)>V(Vtri),{Von},{Voff})}
SYMBOL bv -2896 1424 R0
SYMATTR InstName B6
SYMATTR Value V={if(V(Vcm)>V(Vtri),{Voff},{Von})}
SYMBOL bv -2400 640 R0
SYMATTR InstName B7
SYMATTR Value V=(V(Sah)&delay(V(Sah),{deadtime}))*{Von}
SYMBOL bv -2400 784 R0
SYMATTR InstName B8
SYMATTR Value V=(V(Sal)&delay(V(Sal),{deadtime}))*{Von}
SYMBOL bv -2400 960 R0
SYMATTR InstName B9
SYMATTR Value V=(V(Sbh)&delay(V(Sbh),{deadtime}))*{Von}
SYMBOL bv -2400 1104 R0
SYMATTR InstName B10
SYMATTR Value V=(V(Sbl)&delay(V(Sbl),{deadtime}))*{Von}
SYMBOL bv -2400 1280 R0
SYMATTR InstName B11
SYMATTR Value V=(V(Sch)&delay(V(Sch),{deadtime}))*{Von}
SYMBOL bv -2400 1424 R0
SYMATTR InstName B12
SYMATTR Value V=(V(Scl)&delay(V(Scl),{deadtime}))*{Von}
SYMBOL cap -1280 1120 R0
SYMATTR InstName C1
SYMATTR Value 500µF
SYMBOL ind -1312 1040 R90
WINDOW 0 5 56 VBottom 2
WINDOW 3 32 56 VTop 2
SYMATTR InstName L4
SYMATTR Value 10nH
SYMBOL ind -1120 1040 R90
WINDOW 0 5 56 VBottom 2
WINDOW 3 32 56 VTop 2
SYMATTR InstName L5
SYMATTR Value 10nH
SYMBOL AutoGenerated\\EPC2304 -688 1040 R0
SYMATTR InstName U1
SYMBOL AutoGenerated\\EPC2304 -688 1248 R0
SYMATTR InstName U2
SYMBOL AutoGenerated\\EPC2304 -256 1040 R0
SYMATTR InstName U3
SYMBOL AutoGenerated\\EPC2304 -256 1248 R0
SYMATTR InstName U4
SYMBOL AutoGenerated\\EPC2304 176 1040 R0
SYMATTR InstName U5
SYMBOL AutoGenerated\\EPC2304 176 1248 R0
SYMATTR InstName U6
TEXT -1464 784 Left 2 !.param Ttririse = ({Ttriperiod}/2)
TEXT -1464 752 Left 2 !.param Ttriperiod = (1/{fsw})
TEXT -1464 720 Left 2 !.param fsw = 10k
TEXT -160 696 Left 2 !.tran 1
TEXT -728 696 Left 2 !.param Von=5
TEXT -728 736 Left 2 !.param Voff=0
TEXT -1464 816 Left 2 !.param deadtime = 100n
TEXT -472 736 Left 2 !.ic V(DCcap)={Vdc}
TEXT -472 696 Left 2 !.param Vdc=100
TEXT -984 736 Left 2 !.param m=0.5
TEXT -984 704 Left 2 !.param f = 0.5k
